5

B         4.68942542299261       4.31680218336997       4.51917909931519
F         6.06777878432133       4.43627913202857       4.63430297863084
F         4.05570106439309       4.26333458378645       5.81283994768383
F         4.32026127239385       3.10556849448207       3.82096671781412
F         4.12058959270249       5.42007486346829       3.79991719118234
